clear

New object=circuit.dsse_xmpl
~ basekv=12.66 pu=1.00 angle=0 !mvasc3=2000000  mvasc1=2000000  !stiffen up a bit over DSS default
~ R1=0.0000001 X1=0.000 R0=0.00000001 X0=0.0

redirect dsse_lines.dss
edit line.l1 bus1=sourcebus

redirect dsse_loads.dss

Set VoltageBases = "12.66"
CalcVoltageBases
solve

